%nprocshared=4
%mem=8000MB
# freq 6-31+g(d,p) scrf=(smd,solvent=water) nosymm m062x scf=xqc

NOR-0-N

0 2
 C                  3.39016300   -0.11662100   -0.00245900
 C                  2.51055400   -1.24088000    0.00823400
 C                  1.09274300   -0.92593100    0.01237800
 C                  0.62772100    0.40080400   -0.00157500
 C                  2.89099200    1.16709600   -0.05489300
 H                  0.49735500   -3.00402100    0.11905400
 C                  0.15707700   -1.97510400    0.07908600
 C                 -0.75000500    0.66261300    0.05945600
 H                  3.57686300    2.00257500   -0.09775000
 C                 -1.68523200   -0.36971000    0.12179300
 C                 -1.17542000   -1.69235200    0.13346500
 H                 -1.11772100    1.67622000    0.06964900
 F                 -2.04626400   -2.71503000    0.26670900
 O                  2.92964200   -2.43675500    0.02365300
 C                  4.85766100   -0.29964200    0.00893900
 O                  5.65840300    0.62751000    0.00242100
 O                  5.27604300   -1.56195000    0.02743800
 H                  4.45212000   -2.16022500    0.02943800
 N                  1.56935900    1.46371300   -0.07639000
 C                  1.15992700    2.78543100   -0.17882800
 H                  0.12025600    2.95717500   -0.39395000
 C                  2.13393300    3.89742800   -0.16663600
 H                  2.81912900    3.85824900   -1.02597500
 H                  1.58750600    4.83950000   -0.21219100
 H                  2.75010000    3.89544000    0.74170300
 N                 -3.05996200   -0.15480100    0.23195500
 N                 -5.73136100    0.72326500   -0.32738600
 H                 -6.71783500    0.75028200   -0.08190500
 C                 -3.47862100    1.22992800    0.47380100
 H                 -3.27109400    1.85954800   -0.40679900
 H                 -2.91766900    1.62668300    1.32397700
 C                 -4.96336600    1.27718700    0.78899300
 H                 -5.25358800    2.31798500    0.94949200
 H                 -5.14530000    0.72425900    1.72443700
 C                 -5.34209600   -0.67415500   -0.52498200
 H                 -5.91114200   -1.09673600   -1.35634400
 H                 -5.53998200   -1.28515200    0.37042700
 C                 -3.86432800   -0.75526700   -0.85541700
 H                 -3.57868300   -1.79642900   -0.99582000
 H                 -3.66310700   -0.21070600   -1.79130800

 1 2 1.5 5 2.0 15 1.0
 2 3 1.0 14 2.0
 3 4 1.5 7 1.5
 4 8 1.5 19 1.0
 5 9 1.0 19 1.5
 6 7 1.0
 7 11 2.0
 8 10 1.5 12 1.0
 9
 10 11 1.5 26 1.0
 11 13 1.0
 12
 13
 14
 15 16 2.0 17 1.5
 16
 17
 18
 19 20 1.0
 20 21 1.0 22 1.0
 21
 22 23 1.0 24 1.0 25 1.0
 23
 24
 25
 26 29 1.0 38 1.0
 27 28 1.0 32 1.0 35 1.0
 28
 29 30 1.0 31 1.0 32 1.0
 30
 31
 32 33 1.0 34 1.0
 33
 34
 35 36 1.0 37 1.0 38 1.0
 36
 37
 38 39 1.0 40 1.0
 39
 40

